<?xml version="1.0" encoding="UTF-8"?>
<nodes xmlns:xsi="http://www.w3.org/2001/XMLSchema-instance" xsi:noNamespaceSchemaLocation="http://sumo.dlr.de/xsd/nodes_file.xsd">
   <node id="0" x="0.0" y="0.0"  type="traffic_light"/>
   <node id="1" x="0.0" y="150.0"  type="traffic_light"/>
   <node id="2" x="150.0" y="150.0"  type="traffic_light"/>
   <node id="3" x="150.0" y="0.0"  type="traffic_light"/>

   <node id="0S" x="0.0" y="-400.0" type="priority"/>
   <node id="0W" x="-400.0" y="0.0" type="priority"/>
   <node id="1W" x="-400.0" y="150.0" type="priority"/>
   <node id="1N" x="0.0" y="550.0" type="priority"/>
   <node id="2N" x="150.0" y="550.0" type="priority"/>
   <node id="2E" x="550.0" y="150.0" type="priority"/>
   <node id="3E" x="550.0" y="0.0" type="priority"/>
   <node id="3S" x="150.0" y="-400.0" type="priority"/>
</nodes>
