<?xml version="1.0" encoding="UTF-8"?>

<!-- generated on 07/29/16 13:30:06 by SUMO netconvert Version 0.26.0
<?xml version="1.0" encoding="UTF-8"?>

<configuration xmlns:xsi="http://www.w3.org/2001/XMLSchema-instance" xsi:noNamespaceSchemaLocation="http://sumo.dlr.de/xsd/netconvertConfiguration.xsd">

    <input>
        <sumo-net-file value="cross.net.xml"/>
    </input>

    <processing>
        <no-turnarounds value="true"/>
        <no-turnarounds.tls value="true"/>
        <offset.disable-normalization value="true"/>
        <lefthand value="false"/>
        <junctions.corner-detail value="0"/>
    </processing>

</configuration>
-->

<net version="0.25" xmlns:xsi="http://www.w3.org/2001/XMLSchema-instance" xsi:noNamespaceSchemaLocation="http://sumo.dlr.de/xsd/net_file.xsd">

    <location netOffset="400.00,400.00" convBoundary="0.00,0.00,950.00,950.00" origBoundary="-400.00,-400.00,550.00,550.00" projParameter="!"/>

    <edge id=":0_0" function="internal">
        <lane id=":0_0_0" index="0" speed="15.28" length="5.00" shape="398.35,404.75 398.16,403.39 397.58,402.42 396.61,401.84 395.25,401.65"/>
    </edge>
    <edge id=":0_1" function="internal">
        <lane id=":0_1_0" index="0" speed="15.28" length="9.50" shape="398.35,404.75 398.35,395.25"/>
    </edge>
    <edge id=":0_2" function="internal">
        <lane id=":0_2_0" index="0" speed="19.44" length="5.28" shape="398.35,404.75 398.75,401.95 399.95,399.95 400.05,399.89"/>
    </edge>
    <edge id=":0_12" function="internal">
        <lane id=":0_12_0" index="0" speed="19.44" length="5.04" shape="400.05,399.89 401.95,398.75 404.75,398.35"/>
    </edge>
    <edge id=":0_3" function="internal">
        <lane id=":0_3_0" index="0" speed="19.44" length="5.00" shape="404.75,401.65 403.39,401.84 402.42,402.42 401.84,403.39 401.65,404.75"/>
    </edge>
    <edge id=":0_4" function="internal">
        <lane id=":0_4_0" index="0" speed="15.28" length="9.50" shape="404.75,401.65 395.25,401.65"/>
    </edge>
    <edge id=":0_5" function="internal">
        <lane id=":0_5_0" index="0" speed="15.28" length="5.28" shape="404.75,401.65 401.95,401.25 399.95,400.05 399.89,399.95"/>
    </edge>
    <edge id=":0_13" function="internal">
        <lane id=":0_13_0" index="0" speed="15.28" length="5.04" shape="399.89,399.95 398.75,398.05 398.35,395.25"/>
    </edge>
    <edge id=":0_6" function="internal">
        <lane id=":0_6_0" index="0" speed="19.44" length="5.00" shape="401.65,395.25 401.84,396.61 402.42,397.58 403.39,398.16 404.75,398.35"/>
    </edge>
    <edge id=":0_7" function="internal">
        <lane id=":0_7_0" index="0" speed="19.44" length="9.50" shape="401.65,395.25 401.65,404.75"/>
    </edge>
    <edge id=":0_8" function="internal">
        <lane id=":0_8_0" index="0" speed="15.28" length="5.28" shape="401.65,395.25 401.25,398.05 400.05,400.05 399.95,400.11"/>
    </edge>
    <edge id=":0_14" function="internal">
        <lane id=":0_14_0" index="0" speed="15.28" length="5.04" shape="399.95,400.11 398.05,401.25 395.25,401.65"/>
    </edge>
    <edge id=":0_9" function="internal">
        <lane id=":0_9_0" index="0" speed="15.28" length="5.00" shape="395.25,398.35 396.61,398.16 397.58,397.58 398.16,396.61 398.35,395.25"/>
    </edge>
    <edge id=":0_10" function="internal">
        <lane id=":0_10_0" index="0" speed="19.44" length="9.50" shape="395.25,398.35 404.75,398.35"/>
    </edge>
    <edge id=":0_11" function="internal">
        <lane id=":0_11_0" index="0" speed="19.44" length="5.28" shape="395.25,398.35 398.05,398.75 400.05,399.95 400.11,400.05"/>
    </edge>
    <edge id=":0_15" function="internal">
        <lane id=":0_15_0" index="0" speed="19.44" length="5.04" shape="400.11,400.05 401.25,401.95 401.65,404.75"/>
    </edge>
    <edge id=":0S_0" function="internal">
        <lane id=":0S_0_0" index="0" speed="15.28" length="4.82" shape="398.35,-0.00 399.17,-1.24 400.00,-1.65 400.82,-1.24 401.65,-0.00"/>
    </edge>
    <edge id=":0W_0" function="internal">
        <lane id=":0W_0_0" index="0" speed="15.28" length="4.82" shape="-0.00,401.65 -1.24,400.83 -1.65,400.00 -1.24,399.18 -0.00,398.35"/>
    </edge>
    <edge id=":1_0" function="internal">
        <lane id=":1_0_0" index="0" speed="15.28" length="5.00" shape="398.35,554.75 398.16,553.39 397.58,552.42 396.61,551.84 395.25,551.65"/>
    </edge>
    <edge id=":1_1" function="internal">
        <lane id=":1_1_0" index="0" speed="19.44" length="9.50" shape="398.35,554.75 398.35,545.25"/>
    </edge>
    <edge id=":1_2" function="internal">
        <lane id=":1_2_0" index="0" speed="15.28" length="2.41" shape="398.35,554.75 399.17,553.51 400.00,553.10"/>
    </edge>
    <edge id=":1_12" function="internal">
        <lane id=":1_12_0" index="0" speed="15.28" length="2.41" shape="400.00,553.10 400.82,553.51 401.65,554.75"/>
    </edge>
    <edge id=":1_3" function="internal">
        <lane id=":1_3_0" index="0" speed="15.28" length="5.00" shape="404.75,551.65 403.39,551.84 402.42,552.42 401.84,553.39 401.65,554.75"/>
    </edge>
    <edge id=":1_4" function="internal">
        <lane id=":1_4_0" index="0" speed="15.28" length="9.50" shape="404.75,551.65 395.25,551.65"/>
    </edge>
    <edge id=":1_5" function="internal">
        <lane id=":1_5_0" index="0" speed="19.44" length="2.41" shape="404.75,551.65 403.51,550.82 403.10,550.00"/>
    </edge>
    <edge id=":1_13" function="internal">
        <lane id=":1_13_0" index="0" speed="19.44" length="2.41" shape="403.10,550.00 403.51,549.18 404.75,548.35"/>
    </edge>
    <edge id=":1_6" function="internal">
        <lane id=":1_6_0" index="0" speed="19.44" length="5.00" shape="401.65,545.25 401.84,546.61 402.42,547.58 403.39,548.16 404.75,548.35"/>
    </edge>
    <edge id=":1_7" function="internal">
        <lane id=":1_7_0" index="0" speed="15.28" length="9.50" shape="401.65,545.25 401.65,554.75"/>
    </edge>
    <edge id=":1_8" function="internal">
        <lane id=":1_8_0" index="0" speed="19.44" length="2.41" shape="401.65,545.25 400.83,546.49 400.00,546.90"/>
    </edge>
    <edge id=":1_14" function="internal">
        <lane id=":1_14_0" index="0" speed="19.44" length="2.41" shape="400.00,546.90 399.18,546.49 398.35,545.25"/>
    </edge>
    <edge id=":1_9" function="internal">
        <lane id=":1_9_0" index="0" speed="19.44" length="5.00" shape="395.25,548.35 396.61,548.16 397.58,547.58 398.16,546.61 398.35,545.25"/>
    </edge>
    <edge id=":1_10" function="internal">
        <lane id=":1_10_0" index="0" speed="19.44" length="9.50" shape="395.25,548.35 404.75,548.35"/>
    </edge>
    <edge id=":1_11" function="internal">
        <lane id=":1_11_0" index="0" speed="15.28" length="2.41" shape="395.25,548.35 396.49,549.18 396.90,550.00"/>
    </edge>
    <edge id=":1_15" function="internal">
        <lane id=":1_15_0" index="0" speed="15.28" length="2.41" shape="396.90,550.00 396.49,550.82 395.25,551.65"/>
    </edge>
    <edge id=":1N_0" function="internal">
        <lane id=":1N_0_0" index="0" speed="15.28" length="4.82" shape="401.65,950.00 400.83,951.24 400.00,951.65 399.18,951.24 398.35,950.00"/>
    </edge>
    <edge id=":1W_0" function="internal">
        <lane id=":1W_0_0" index="0" speed="15.28" length="4.82" shape="-0.00,551.65 -1.24,550.82 -1.65,550.00 -1.24,549.18 -0.00,548.35"/>
    </edge>
    <edge id=":2_0" function="internal">
        <lane id=":2_0_0" index="0" speed="19.44" length="5.00" shape="548.35,554.75 548.16,553.39 547.58,552.42 546.61,551.84 545.25,551.65"/>
    </edge>
    <edge id=":2_1" function="internal">
        <lane id=":2_1_0" index="0" speed="19.44" length="9.50" shape="548.35,554.75 548.35,545.25"/>
    </edge>
    <edge id=":2_2" function="internal">
        <lane id=":2_2_0" index="0" speed="15.28" length="2.41" shape="548.35,554.75 549.18,553.51 550.00,553.10"/>
    </edge>
    <edge id=":2_12" function="internal">
        <lane id=":2_12_0" index="0" speed="15.28" length="2.41" shape="550.00,553.10 550.82,553.51 551.65,554.75"/>
    </edge>
    <edge id=":2_3" function="internal">
        <lane id=":2_3_0" index="0" speed="15.28" length="5.00" shape="554.75,551.65 553.39,551.84 552.42,552.42 551.84,553.39 551.65,554.75"/>
    </edge>
    <edge id=":2_4" function="internal">
        <lane id=":2_4_0" index="0" speed="19.44" length="9.50" shape="554.75,551.65 545.25,551.65"/>
    </edge>
    <edge id=":2_5" function="internal">
        <lane id=":2_5_0" index="0" speed="15.28" length="2.41" shape="554.75,551.65 553.51,550.82 553.10,550.00"/>
    </edge>
    <edge id=":2_13" function="internal">
        <lane id=":2_13_0" index="0" speed="15.28" length="2.41" shape="553.10,550.00 553.51,549.18 554.75,548.35"/>
    </edge>
    <edge id=":2_6" function="internal">
        <lane id=":2_6_0" index="0" speed="15.28" length="5.00" shape="551.65,545.25 551.84,546.61 552.42,547.58 553.39,548.16 554.75,548.35"/>
    </edge>
    <edge id=":2_7" function="internal">
        <lane id=":2_7_0" index="0" speed="15.28" length="9.50" shape="551.65,545.25 551.65,554.75"/>
    </edge>
    <edge id=":2_8" function="internal">
        <lane id=":2_8_0" index="0" speed="19.44" length="2.41" shape="551.65,545.25 550.82,546.49 550.00,546.90"/>
    </edge>
    <edge id=":2_14" function="internal">
        <lane id=":2_14_0" index="0" speed="19.44" length="2.41" shape="550.00,546.90 549.18,546.49 548.35,545.25"/>
    </edge>
    <edge id=":2_9" function="internal">
        <lane id=":2_9_0" index="0" speed="19.44" length="5.00" shape="545.25,548.35 546.61,548.16 547.58,547.58 548.16,546.61 548.35,545.25"/>
    </edge>
    <edge id=":2_10" function="internal">
        <lane id=":2_10_0" index="0" speed="15.28" length="9.50" shape="545.25,548.35 554.75,548.35"/>
    </edge>
    <edge id=":2_11" function="internal">
        <lane id=":2_11_0" index="0" speed="19.44" length="2.41" shape="545.25,548.35 546.49,549.18 546.90,550.00"/>
    </edge>
    <edge id=":2_15" function="internal">
        <lane id=":2_15_0" index="0" speed="19.44" length="2.41" shape="546.90,550.00 546.49,550.82 545.25,551.65"/>
    </edge>
    <edge id=":2E_0" function="internal">
        <lane id=":2E_0_0" index="0" speed="15.28" length="4.82" shape="950.00,548.35 951.24,549.18 951.65,550.00 951.24,550.82 950.00,551.65"/>
    </edge>
    <edge id=":2N_0" function="internal">
        <lane id=":2N_0_0" index="0" speed="15.28" length="4.82" shape="551.65,950.00 550.82,951.24 550.00,951.65 549.18,951.24 548.35,950.00"/>
    </edge>
    <edge id=":3_0" function="internal">
        <lane id=":3_0_0" index="0" speed="19.44" length="5.00" shape="548.35,404.75 548.16,403.39 547.58,402.42 546.61,401.84 545.25,401.65"/>
    </edge>
    <edge id=":3_1" function="internal">
        <lane id=":3_1_0" index="0" speed="15.28" length="9.50" shape="548.35,404.75 548.35,395.25"/>
    </edge>
    <edge id=":3_2" function="internal">
        <lane id=":3_2_0" index="0" speed="19.44" length="2.41" shape="548.35,404.75 549.18,403.51 550.00,403.10"/>
    </edge>
    <edge id=":3_12" function="internal">
        <lane id=":3_12_0" index="0" speed="19.44" length="2.41" shape="550.00,403.10 550.82,403.51 551.65,404.75"/>
    </edge>
    <edge id=":3_3" function="internal">
        <lane id=":3_3_0" index="0" speed="19.44" length="5.00" shape="554.75,401.65 553.39,401.84 552.42,402.42 551.84,403.39 551.65,404.75"/>
    </edge>
    <edge id=":3_4" function="internal">
        <lane id=":3_4_0" index="0" speed="19.44" length="9.50" shape="554.75,401.65 545.25,401.65"/>
    </edge>
    <edge id=":3_5" function="internal">
        <lane id=":3_5_0" index="0" speed="15.28" length="2.41" shape="554.75,401.65 553.51,400.83 553.10,400.00"/>
    </edge>
    <edge id=":3_13" function="internal">
        <lane id=":3_13_0" index="0" speed="15.28" length="2.41" shape="553.10,400.00 553.51,399.18 554.75,398.35"/>
    </edge>
    <edge id=":3_6" function="internal">
        <lane id=":3_6_0" index="0" speed="15.28" length="5.00" shape="551.65,395.25 551.84,396.61 552.42,397.58 553.39,398.16 554.75,398.35"/>
    </edge>
    <edge id=":3_7" function="internal">
        <lane id=":3_7_0" index="0" speed="19.44" length="9.50" shape="551.65,395.25 551.65,404.75"/>
    </edge>
    <edge id=":3_8" function="internal">
        <lane id=":3_8_0" index="0" speed="15.28" length="2.41" shape="551.65,395.25 550.82,396.49 550.00,396.90"/>
    </edge>
    <edge id=":3_14" function="internal">
        <lane id=":3_14_0" index="0" speed="15.28" length="2.41" shape="550.00,396.90 549.18,396.49 548.35,395.25"/>
    </edge>
    <edge id=":3_9" function="internal">
        <lane id=":3_9_0" index="0" speed="15.28" length="5.00" shape="545.25,398.35 546.61,398.16 547.58,397.58 548.16,396.61 548.35,395.25"/>
    </edge>
    <edge id=":3_10" function="internal">
        <lane id=":3_10_0" index="0" speed="15.28" length="9.50" shape="545.25,398.35 554.75,398.35"/>
    </edge>
    <edge id=":3_11" function="internal">
        <lane id=":3_11_0" index="0" speed="19.44" length="2.41" shape="545.25,398.35 546.49,399.17 546.90,400.00"/>
    </edge>
    <edge id=":3_15" function="internal">
        <lane id=":3_15_0" index="0" speed="19.44" length="2.41" shape="546.90,400.00 546.49,400.82 545.25,401.65"/>
    </edge>
    <edge id=":3E_0" function="internal">
        <lane id=":3E_0_0" index="0" speed="15.28" length="4.82" shape="950.00,398.35 951.24,399.17 951.65,400.00 951.24,400.82 950.00,401.65"/>
    </edge>
    <edge id=":3S_0" function="internal">
        <lane id=":3S_0_0" index="0" speed="15.28" length="4.82" shape="548.35,-0.00 549.18,-1.24 550.00,-1.65 550.82,-1.24 551.65,-0.00"/>
    </edge>

    <edge id="01" from="0" to="1" priority="78">
        <lane id="01_0" index="0" speed="19.44" length="140.50" shape="401.65,404.75 401.65,545.25"/>
    </edge>
    <edge id="03" from="0" to="3" priority="78">
        <lane id="03_0" index="0" speed="19.44" length="140.50" shape="404.75,398.35 545.25,398.35"/>
    </edge>
    <edge id="0i" from="0S" to="0" priority="78">
        <lane id="0i_0" index="0" speed="19.44" length="395.25" shape="401.65,-0.00 401.65,395.25"/>
    </edge>
    <edge id="0o" from="0" to="0S" priority="46">
        <lane id="0o_0" index="0" speed="11.11" length="395.25" shape="398.35,395.25 398.35,-0.00"/>
    </edge>
    <edge id="10" from="1" to="0" priority="78">
        <lane id="10_0" index="0" speed="19.44" length="140.50" shape="398.35,545.25 398.35,404.75"/>
    </edge>
    <edge id="12" from="1" to="2" priority="78">
        <lane id="12_0" index="0" speed="19.44" length="140.50" shape="404.75,548.35 545.25,548.35"/>
    </edge>
    <edge id="1i" from="0W" to="0" priority="78">
        <lane id="1i_0" index="0" speed="19.44" length="395.25" shape="-0.00,398.35 395.25,398.35"/>
    </edge>
    <edge id="1o" from="0" to="0W" priority="46">
        <lane id="1o_0" index="0" speed="11.11" length="395.25" shape="395.25,401.65 -0.00,401.65"/>
    </edge>
    <edge id="21" from="2" to="1" priority="78">
        <lane id="21_0" index="0" speed="19.44" length="140.50" shape="545.25,551.65 404.75,551.65"/>
    </edge>
    <edge id="23" from="2" to="3" priority="78">
        <lane id="23_0" index="0" speed="19.44" length="140.50" shape="548.35,545.25 548.35,404.75"/>
    </edge>
    <edge id="2i" from="1W" to="1" priority="78">
        <lane id="2i_0" index="0" speed="19.44" length="395.25" shape="-0.00,548.35 395.25,548.35"/>
    </edge>
    <edge id="2o" from="1" to="1W" priority="46">
        <lane id="2o_0" index="0" speed="11.11" length="395.25" shape="395.25,551.65 -0.00,551.65"/>
    </edge>
    <edge id="30" from="3" to="0" priority="78">
        <lane id="30_0" index="0" speed="19.44" length="140.50" shape="545.25,401.65 404.75,401.65"/>
    </edge>
    <edge id="32" from="3" to="2" priority="78">
        <lane id="32_0" index="0" speed="19.44" length="140.50" shape="551.65,404.75 551.65,545.25"/>
    </edge>
    <edge id="3i" from="1N" to="1" priority="78">
        <lane id="3i_0" index="0" speed="19.44" length="395.25" shape="398.35,950.00 398.35,554.75"/>
    </edge>
    <edge id="3o" from="1" to="1N" priority="46">
        <lane id="3o_0" index="0" speed="11.11" length="395.25" shape="401.65,554.75 401.65,950.00"/>
    </edge>
    <edge id="4i" from="2N" to="2" priority="78">
        <lane id="4i_0" index="0" speed="19.44" length="395.25" shape="548.35,950.00 548.35,554.75"/>
    </edge>
    <edge id="4o" from="2" to="2N" priority="46">
        <lane id="4o_0" index="0" speed="11.11" length="395.25" shape="551.65,554.75 551.65,950.00"/>
    </edge>
    <edge id="5i" from="2E" to="2" priority="78">
        <lane id="5i_0" index="0" speed="19.44" length="395.25" shape="950.00,551.65 554.75,551.65"/>
    </edge>
    <edge id="5o" from="2" to="2E" priority="46">
        <lane id="5o_0" index="0" speed="11.11" length="395.25" shape="554.75,548.35 950.00,548.35"/>
    </edge>
    <edge id="6i" from="3E" to="3" priority="78">
        <lane id="6i_0" index="0" speed="19.44" length="395.25" shape="950.00,401.65 554.75,401.65"/>
    </edge>
    <edge id="6o" from="3" to="3E" priority="46">
        <lane id="6o_0" index="0" speed="11.11" length="395.25" shape="554.75,398.35 950.00,398.35"/>
    </edge>
    <edge id="7i" from="3S" to="3" priority="78">
        <lane id="7i_0" index="0" speed="19.44" length="395.25" shape="551.65,-0.00 551.65,395.25"/>
    </edge>
    <edge id="7o" from="3" to="3S" priority="46">
        <lane id="7o_0" index="0" speed="11.11" length="395.25" shape="548.35,395.25 548.35,-0.00"/>
    </edge>

    <tlLogic id="0" type="static" programID="0" offset="0">
        <phase duration="39" state="GGgrrrGGgrrr"/>
        <phase duration="6" state="yyyrrryyyrrr"/>
        <phase duration="39" state="rrrGGgrrrGGg"/>
        <phase duration="6" state="rrryyyrrryyy"/>
    </tlLogic>
    <tlLogic id="1" type="static" programID="0" offset="0">
        <phase duration="39" state="GGgrrrGGgrrr"/>
        <phase duration="6" state="yyyrrryyyrrr"/>
        <phase duration="39" state="rrrGGgrrrGGg"/>
        <phase duration="6" state="rrryyyrrryyy"/>
    </tlLogic>
    <tlLogic id="2" type="static" programID="0" offset="0">
        <phase duration="39" state="GGgrrrGGgrrr"/>
        <phase duration="6" state="yyyrrryyyrrr"/>
        <phase duration="39" state="rrrGGgrrrGGg"/>
        <phase duration="6" state="rrryyyrrryyy"/>
    </tlLogic>
    <tlLogic id="3" type="static" programID="0" offset="0">
        <phase duration="39" state="GGgrrrGGgrrr"/>
        <phase duration="6" state="yyyrrryyyrrr"/>
        <phase duration="39" state="rrrGGgrrrGGg"/>
        <phase duration="6" state="rrryyyrrryyy"/>
    </tlLogic>

    <junction id="0" type="traffic_light" x="400.00" y="400.00" incLanes="10_0 30_0 0i_0 1i_0" intLanes=":0_0_0 :0_1_0 :0_12_0 :0_3_0 :0_4_0 :0_13_0 :0_6_0 :0_7_0 :0_14_0 :0_9_0 :0_10_0 :0_15_0" shape="396.75,404.75 403.25,404.75 404.75,403.25 404.75,396.75 403.25,395.25 396.75,395.25 395.25,396.75 395.25,403.25">
        <request index="0" response="000000000000" foes="000100010000" cont="0"/>
        <request index="1" response="000000000000" foes="111100110000" cont="0"/>
        <request index="2" response="000011000000" foes="110011110000" cont="1"/>
        <request index="3" response="000010000000" foes="100010000000" cont="0"/>
        <request index="4" response="000110000111" foes="100110000111" cont="0"/>
        <request index="5" response="011110000110" foes="011110000110" cont="1"/>
        <request index="6" response="000000000000" foes="010000000100" cont="0"/>
        <request index="7" response="000000000000" foes="110000111100" cont="0"/>
        <request index="8" response="000000000011" foes="110000110011" cont="1"/>
        <request index="9" response="000000000010" foes="000000100010" cont="0"/>
        <request index="10" response="000111000110" foes="000111100110" cont="0"/>
        <request index="11" response="000110011110" foes="000110011110" cont="1"/>
    </junction>
    <junction id="0S" type="priority" x="400.00" y="0.00" incLanes="0o_0" intLanes=":0S_0_0" shape="400.05,-0.00 403.25,-0.00 396.75,-0.00 399.95,-0.00">
        <request index="0" response="0" foes="0" cont="0"/>
    </junction>
    <junction id="0W" type="priority" x="0.00" y="400.00" incLanes="1o_0" intLanes=":0W_0_0" shape="-0.00,399.95 -0.00,396.75 -0.00,403.25 -0.00,400.05">
        <request index="0" response="0" foes="0" cont="0"/>
    </junction>
    <junction id="1" type="traffic_light" x="400.00" y="550.00" incLanes="3i_0 21_0 01_0 2i_0" intLanes=":1_0_0 :1_1_0 :1_12_0 :1_3_0 :1_4_0 :1_13_0 :1_6_0 :1_7_0 :1_14_0 :1_9_0 :1_10_0 :1_15_0" shape="396.75,554.75 403.25,554.75 404.75,553.25 404.75,546.75 403.25,545.25 396.75,545.25 395.25,546.75 395.25,553.25">
        <request index="0" response="000000000000" foes="100000010000" cont="0"/>
        <request index="1" response="000000000000" foes="011100010000" cont="0"/>
        <request index="2" response="000010001000" foes="000010001000" cont="1"/>
        <request index="3" response="000010000000" foes="000010000100" cont="0"/>
        <request index="4" response="000010000011" foes="100010000011" cont="0"/>
        <request index="5" response="010001000000" foes="010001000000" cont="1"/>
        <request index="6" response="000000000000" foes="010000100000" cont="0"/>
        <request index="7" response="000000000000" foes="010000011100" cont="0"/>
        <request index="8" response="001000000010" foes="001000000010" cont="1"/>
        <request index="9" response="000000000010" foes="000100000010" cont="0"/>
        <request index="10" response="000011000010" foes="000011100010" cont="0"/>
        <request index="11" response="000000010001" foes="000000010001" cont="1"/>
    </junction>
    <junction id="1N" type="priority" x="400.00" y="950.00" incLanes="3o_0" intLanes=":1N_0_0" shape="399.95,950.00 396.75,950.00 403.25,950.00 400.05,950.00">
        <request index="0" response="0" foes="0" cont="0"/>
    </junction>
    <junction id="1W" type="priority" x="0.00" y="550.00" incLanes="2o_0" intLanes=":1W_0_0" shape="-0.00,549.95 -0.00,546.75 -0.00,553.25 -0.00,550.05">
        <request index="0" response="0" foes="0" cont="0"/>
    </junction>
    <junction id="2" type="traffic_light" x="550.00" y="550.00" incLanes="4i_0 5i_0 32_0 12_0" intLanes=":2_0_0 :2_1_0 :2_12_0 :2_3_0 :2_4_0 :2_13_0 :2_6_0 :2_7_0 :2_14_0 :2_9_0 :2_10_0 :2_15_0" shape="546.75,554.75 553.25,554.75 554.75,553.25 554.75,546.75 553.25,545.25 546.75,545.25 545.25,546.75 545.25,553.25">
        <request index="0" response="000000000000" foes="100000010000" cont="0"/>
        <request index="1" response="000000000000" foes="011100010000" cont="0"/>
        <request index="2" response="000010001000" foes="000010001000" cont="1"/>
        <request index="3" response="000010000000" foes="000010000100" cont="0"/>
        <request index="4" response="000010000011" foes="100010000011" cont="0"/>
        <request index="5" response="010001000000" foes="010001000000" cont="1"/>
        <request index="6" response="000000000000" foes="010000100000" cont="0"/>
        <request index="7" response="000000000000" foes="010000011100" cont="0"/>
        <request index="8" response="001000000010" foes="001000000010" cont="1"/>
        <request index="9" response="000000000010" foes="000100000010" cont="0"/>
        <request index="10" response="000011000010" foes="000011100010" cont="0"/>
        <request index="11" response="000000010001" foes="000000010001" cont="1"/>
    </junction>
    <junction id="2E" type="priority" x="950.00" y="550.00" incLanes="5o_0" intLanes=":2E_0_0" shape="950.00,550.05 950.00,553.25 950.00,546.75 950.00,549.95">
        <request index="0" response="0" foes="0" cont="0"/>
    </junction>
    <junction id="2N" type="priority" x="550.00" y="950.00" incLanes="4o_0" intLanes=":2N_0_0" shape="549.95,950.00 546.75,950.00 553.25,950.00 550.05,950.00">
        <request index="0" response="0" foes="0" cont="0"/>
    </junction>
    <junction id="3" type="traffic_light" x="550.00" y="400.00" incLanes="23_0 6i_0 7i_0 03_0" intLanes=":3_0_0 :3_1_0 :3_12_0 :3_3_0 :3_4_0 :3_13_0 :3_6_0 :3_7_0 :3_14_0 :3_9_0 :3_10_0 :3_15_0" shape="546.75,404.75 553.25,404.75 554.75,403.25 554.75,396.75 553.25,395.25 546.75,395.25 545.25,396.75 545.25,403.25">
        <request index="0" response="000000000000" foes="100000010000" cont="0"/>
        <request index="1" response="000000000000" foes="011100010000" cont="0"/>
        <request index="2" response="000010001000" foes="000010001000" cont="1"/>
        <request index="3" response="000010000000" foes="000010000100" cont="0"/>
        <request index="4" response="000010000011" foes="100010000011" cont="0"/>
        <request index="5" response="010001000000" foes="010001000000" cont="1"/>
        <request index="6" response="000000000000" foes="010000100000" cont="0"/>
        <request index="7" response="000000000000" foes="010000011100" cont="0"/>
        <request index="8" response="001000000010" foes="001000000010" cont="1"/>
        <request index="9" response="000000000010" foes="000100000010" cont="0"/>
        <request index="10" response="000011000010" foes="000011100010" cont="0"/>
        <request index="11" response="000000010001" foes="000000010001" cont="1"/>
    </junction>
    <junction id="3E" type="priority" x="950.00" y="400.00" incLanes="6o_0" intLanes=":3E_0_0" shape="950.00,400.05 950.00,403.25 950.00,396.75 950.00,399.95">
        <request index="0" response="0" foes="0" cont="0"/>
    </junction>
    <junction id="3S" type="priority" x="550.00" y="0.00" incLanes="7o_0" intLanes=":3S_0_0" shape="550.05,-0.00 553.25,-0.00 546.75,-0.00 549.95,-0.00">
        <request index="0" response="0" foes="0" cont="0"/>
    </junction>

    <junction id=":0_12_0" type="internal" x="400.05" y="399.89" incLanes=":0_2_0 0i_0" intLanes=":0_4_0 :0_5_0 :0_6_0 :0_7_0 :0_10_0 :0_11_0"/>
    <junction id=":0_13_0" type="internal" x="399.89" y="399.95" incLanes=":0_5_0 1i_0" intLanes=":0_1_0 :0_2_0 :0_7_0 :0_8_0 :0_9_0 :0_10_0"/>
    <junction id=":0_14_0" type="internal" x="399.95" y="400.11" incLanes=":0_8_0 10_0" intLanes=":0_0_0 :0_1_0 :0_4_0 :0_5_0 :0_10_0 :0_11_0"/>
    <junction id=":0_15_0" type="internal" x="400.11" y="400.05" incLanes=":0_11_0 30_0" intLanes=":0_1_0 :0_2_0 :0_3_0 :0_4_0 :0_7_0 :0_8_0"/>
    <junction id=":1_12_0" type="internal" x="400.00" y="553.10" incLanes=":1_2_0 01_0 21_0" intLanes=":1_3_0 :1_7_0"/>
    <junction id=":1_13_0" type="internal" x="403.10" y="550.00" incLanes=":1_5_0 01_0 2i_0" intLanes=":1_6_0 :1_10_0"/>
    <junction id=":1_14_0" type="internal" x="400.00" y="546.90" incLanes=":1_8_0 2i_0 3i_0" intLanes=":1_1_0 :1_9_0"/>
    <junction id=":1_15_0" type="internal" x="396.90" y="550.00" incLanes=":1_11_0 21_0 3i_0" intLanes=":1_0_0 :1_4_0"/>
    <junction id=":2_12_0" type="internal" x="550.00" y="553.10" incLanes=":2_2_0 32_0 5i_0" intLanes=":2_3_0 :2_7_0"/>
    <junction id=":2_13_0" type="internal" x="553.10" y="550.00" incLanes=":2_5_0 12_0 32_0" intLanes=":2_6_0 :2_10_0"/>
    <junction id=":2_14_0" type="internal" x="550.00" y="546.90" incLanes=":2_8_0 12_0 4i_0" intLanes=":2_1_0 :2_9_0"/>
    <junction id=":2_15_0" type="internal" x="546.90" y="550.00" incLanes=":2_11_0 4i_0 5i_0" intLanes=":2_0_0 :2_4_0"/>
    <junction id=":3_12_0" type="internal" x="550.00" y="403.10" incLanes=":3_2_0 6i_0 7i_0" intLanes=":3_3_0 :3_7_0"/>
    <junction id=":3_13_0" type="internal" x="553.10" y="400.00" incLanes=":3_5_0 03_0 7i_0" intLanes=":3_6_0 :3_10_0"/>
    <junction id=":3_14_0" type="internal" x="550.00" y="396.90" incLanes=":3_8_0 03_0 23_0" intLanes=":3_1_0 :3_9_0"/>
    <junction id=":3_15_0" type="internal" x="546.90" y="400.00" incLanes=":3_11_0 23_0 6i_0" intLanes=":3_0_0 :3_4_0"/>

    <connection from="01" to="12" fromLane="0" toLane="0" via=":1_6_0" tl="1" linkIndex="6" dir="r" state="o"/>
    <connection from="01" to="3o" fromLane="0" toLane="0" via=":1_7_0" tl="1" linkIndex="7" dir="s" state="o"/>
    <connection from="01" to="10" fromLane="0" toLane="0" via=":1_8_0" tl="1" linkIndex="8" dir="t" state="o"/>
    <connection from="03" to="7o" fromLane="0" toLane="0" via=":3_9_0" tl="3" linkIndex="9" dir="r" state="o"/>
    <connection from="03" to="6o" fromLane="0" toLane="0" via=":3_10_0" tl="3" linkIndex="10" dir="s" state="o"/>
    <connection from="03" to="30" fromLane="0" toLane="0" via=":3_11_0" tl="3" linkIndex="11" dir="t" state="o"/>
    <connection from="0i" to="03" fromLane="0" toLane="0" via=":0_6_0" tl="0" linkIndex="6" dir="r" state="o"/>
    <connection from="0i" to="01" fromLane="0" toLane="0" via=":0_7_0" tl="0" linkIndex="7" dir="s" state="o"/>
    <connection from="0i" to="1o" fromLane="0" toLane="0" via=":0_8_0" tl="0" linkIndex="8" dir="l" state="o"/>
    <connection from="0o" to="0i" fromLane="0" toLane="0" via=":0S_0_0" dir="t" state="M"/>
    <connection from="10" to="1o" fromLane="0" toLane="0" via=":0_0_0" tl="0" linkIndex="0" dir="r" state="o"/>
    <connection from="10" to="0o" fromLane="0" toLane="0" via=":0_1_0" tl="0" linkIndex="1" dir="s" state="o"/>
    <connection from="10" to="03" fromLane="0" toLane="0" via=":0_2_0" tl="0" linkIndex="2" dir="l" state="o"/>
    <connection from="12" to="23" fromLane="0" toLane="0" via=":2_9_0" tl="2" linkIndex="9" dir="r" state="o"/>
    <connection from="12" to="5o" fromLane="0" toLane="0" via=":2_10_0" tl="2" linkIndex="10" dir="s" state="o"/>